J13 offshore wind hydrogen - figshare/PSSERaw_from_Dutrain.m
function mpc = PSSERaw_from_Dutrain
%PSSERAW_FROM_DUTRAIN

%% MATPOWER Case Format : Version 2
mpc.version = '2';

%%-----  Power Flow Data  -----%%
%% system MVA base
mpc.baseMVA = 100;

%% bus data
%	bus_i	type	Pd	Qd	Gs	Bs	area	Vm	Va	baseKV	zone	Vmax	Vmin
mpc.bus = [
	1	3	0	0	0	0	1	1	0	220	1	1.05	0.95;
	2	1	0	0	0	0	1	0.999545455	0	220	1	1.05	0.95;
	3	1	0	0	0	0	1	0.990454545	-0	220	1	1.05	0.95;
	4	1	0.333	0.044	0	0	1	1.01	-0	110	1	1.05	0.95;
	5	1	0	0	0	0	1	0.990454545	-0	220	1	1.05	0.95;
	6	1	0	0	0	0	1	0.989090909	-0	220	1	1.05	0.95;
	7	1	0	0	0	0	1	0.989090909	-0	220	1	1.05	0.95;
	8	1	0	0	0	0	1	0.995	-0	220	1	1.05	0.95;
	9	1	0	0	0	0	1	0.995	-0	220	1	1.05	0.95;
	10	1	0	0	0	0	1	1.01136364	-0	220	1	1.05	0.95;
	11	1	0	0	0	0	1	1.01181818	-0	220	1	1.05	0.95;
	12	1	0	0	0	0	1	1.01772727	0	220	1	1.05	0.95;
	13	1	0	0	0	0	1	1.02136364	0	220	1	1.05	0.95;
	14	1	0	0	0	0	1	1.02136364	0	220	1	1.05	0.95;
	15	1	0	0	0	0	1	1.01727273	-0	220	1	1.05	0.95;
	16	1	0	0	0	0	1	1.005	-0	220	1	1.05	0.95;
	17	1	0	0	0	0	1	1.005	-0	220	1	1.05	0.95;
	18	1	0	0	0	0	1	0.996363636	-0	220	1	1.05	0.95;
	19	1	0	0	0	0	1	0.996363636	-0	220	1	1.05	0.95;
	20	1	0	0	0	0	1	0.984545455	-0	220	1	1.05	0.95;
	21	1	0	0	0	0	1	0.999090909	-0	220	1	1.05	0.95;
	22	1	0	0	0	0	1	0.999545455	-0	220	1	1.05	0.95;
	23	1	0	0	0	0	1	0.993181818	-0	220	1	1.05	0.95;
	24	1	0	0	0	0	1	0.993181818	-0	220	1	1.05	0.95;
	25	1	0	0	0	0	1	0.995909091	-0	220	1	1.05	0.95;
	26	2	0	0	0	0	1	1	-0	20	1	1.05	0.95;
	27	1	0	0	0	0	1	0.991818182	-0	220	1	1.05	0.95;
	28	1	0	0	0	0	1	1.00590909	0	220	1	1.05	0.95;
	29	1	0	0	0	0	1	1.01	0	220	1	1.05	0.95;
	30	1	0	0	0	0	1	1.00954545	0	220	1	1.05	0.95;
	31	1	0	0	0	0	1	1.00954545	0	220	1	1.05	0.95;
	32	2	0	0	0	0	1	1	0	20	1	1.05	0.95;
	33	1	0	0	0	0	1	1.00954545	0	220	1	1.05	0.95;
	34	1	0	0	0	0	1	1.01	0	20	1	1.05	0.95;
	35	2	0	0	0	0	1	1	0	20	1	1.05	0.95;
	36	2	0	0	0	0	1	1	0	20	1	1.05	0.95;
	37	1	0	0	0	0	1	1.00590909	0	220	1	1.05	0.95;
	38	1	0	0	0	0	1	0.984545455	-0	110	1	1.05	0.95;
	39	1	0	0	0	0	1	0.979090909	-0	110	1	1.05	0.95;
	40	1	0	0	0	0	1	0.979090909	-0	110	1	1.05	0.95;
	41	1	0	0	0	0	1	0.979090909	-0	110	1	1.05	0.95;
	42	2	0	0	0	0	1	1	-0	10	1	1.05	0.95;
	43	1	0	0	0	0	1	0.984545455	0	110	1	1.05	0.95;
	44	1	0	0	0	0	1	0.984545455	0	110	1	1.05	0.95;
	45	1	0	0	0	0	1	0.981818182	-0	110	1	1.05	0.95;
	46	1	0	0	0	0	1	0.98	0	110	1	1.05	0.95;
	47	1	0	0	0	0	1	0.975454545	-0	110	1	1.05	0.95;
	48	1	0	0	0	0	1	0.975454545	-0	110	1	1.05	0.95;
	49	1	0	0	0	0	1	0.975454545	-0	110	1	1.05	0.95;
	50	1	0	0	0	0	1	0.984545455	-0	110	1	1.05	0.95;
	51	1	0	0	0	0	1	0.98	-0	110	1	1.05	0.95;
	52	1	0	0	0	0	1	0.98	-0	110	1	1.05	0.95;
	53	1	0	0	0	0	1	0.986363636	-0	110	1	1.05	0.95;
	54	1	0	0	0	0	1	1	-0	110	1	1.05	0.95;
	55	2	0	0	0	0	1	1	-0	110	1	1.05	0.95;
	56	1	0	0	0	0	1	1	-0	110	1	1.05	0.95;
	57	1	0	0	0	0	1	1	-0	110	1	1.05	0.95;
	58	1	0	0	0	0	1	1	-0	110	1	1.05	0.95;
	59	2	0	0	0	0	1	1	-0	110	1	1.05	0.95;
	60	1	0	0	0	0	1	1	-0	110	1	1.05	0.95;
	61	1	3.249	0.758	0	0	1	1.02	-0	10	1	1.05	0.95;
	62	1	3.249	0.758	0	0	1	1.02	-0	10	1	1.05	0.95;
	63	1	0	0	0	0	1	1	-0	110	1	1.05	0.95;
	64	2	0	0	0	0	1	1	-0	110	1	1.05	0.95;
	65	1	0	0	0	0	1	1	-0	110	1	1.05	0.95;
	66	1	0	0	0	0	1	1.01545455	-0	220	1	1.05	0.95;
	67	1	0	0	0	0	1	1.01909091	-0	220	1	1.05	0.95;
	68	1	0	0	0	0	1	1.01727273	-0	220	1	1.05	0.95;
	69	1	0	0	0	0	1	1.00454545	-0	110	1	1.05	0.95;
	70	1	0	0	0	0	1	1	-0	110	1	1.05	0.95;
	71	1	0	0	0	0	1	1	-0	110	1	1.05	0.95;
	72	1	0	0	0	0	1	1	-0	110	1	1.05	0.95;
	73	2	0	0	0	0	1	1	-0	110	1	1.05	0.95;
	74	1	0	0	0	0	1	1	-0	110	1	1.05	0.95;
	75	1	14.089	2.122	0	0	1	1.01	-0	10	1	1.05	0.95;
	76	1	14.089	2.122	0	0	1	1.01	-0	10	1	1.05	0.95;
	77	2	0	0	0	0	1	1	-0	110	1	1.05	0.95;
	78	1	0	0	0	0	1	1	-0	110	1	1.05	0.95;
	79	1	0	0	0	0	1	0.997272727	-0	110	1	1.05	0.95;
	80	1	0	0	0	0	1	0.997272727	-0	110	1	1.05	0.95;
	81	2	0	0	0	0	1	1	-0	10	1	1.05	0.95;
	82	1	0	0	0	0	1	0.998181818	-0	110	1	1.05	0.95;
	83	1	0	0	0	0	1	1	-0	110	1	1.05	0.95;
	84	2	0	0	0	0	1	1	-0	110	1	1.05	0.95;
	85	1	0	0	0	0	1	1	-0	110	1	1.05	0.95;
	86	1	0	0	0	0	1	1	-0	110	1	1.05	0.95;
	87	1	0	0	0	0	1	1	-0	110	1	1.05	0.95;
	88	1	0	0	0	0	1	1.01409091	-0	220	1	1.05	0.95;
	89	1	0	0	0	0	1	1.01545455	-0	220	1	1.05	0.95;
	90	1	0	0	0	0	1	1.01545455	-0	220	1	1.05	0.95;
	91	1	0	0	0	0	1	0.999090909	-0	110	1	1.05	0.95;
	92	1	0	0	0	0	1	1	-0	110	1	1.05	0.95;
	93	1	0	0	0	0	1	1	-0	110	1	1.05	0.95;
	94	1	0	0	0	0	1	0.997272727	-0	110	1	1.05	0.95;
	95	1	0	0	0	0	1	0.997272727	-0	110	1	1.05	0.95;
	96	1	0	0	0	0	1	0.997272727	-0	110	1	1.05	0.95;
	97	1	0	0	0	0	1	0.997272727	-0	110	1	1.05	0.95;
	98	1	0	0	0	0	1	0.997272727	-0	110	1	1.05	0.95;
	99	1	0	0	0	0	1	0.997272727	-0	110	1	1.05	0.95;
	100	1	2.745	0.808	0	0	1	0.99	-0	10	1	1.05	0.95;
	101	1	2.041	1.01	0	0	1	0.99	-0	10	1	1.05	0.95;
	102	1	2.041	1.01	0	0	1	0.99	-0	10	1	1.05	0.95;
	103	1	2.745	0.808	0	0	1	0.99	-0	10	1	1.05	0.95;
	104	1	0	0	0	0	1	1	-0	110	1	1.05	0.95;
	105	2	0	0	0	0	1	1	-0	110	1	1.05	0.95;
	106	1	0	0	0	0	1	1	-0	110	1	1.05	0.95;
	107	2	0	0	0	0	1	1	-0	110	1	1.05	0.95;
	108	1	0	0	0	0	1	1	-0	110	1	1.05	0.95;
	109	1	7.308	1.617	0	0	1	1.01	-0	10	1	1.05	0.95;
	110	1	7.308	1.617	0	0	1	1.01	-0	10	1	1.05	0.95;
	111	1	0	0	0	0	1	0.998181818	-0	110	1	1.05	0.95;
	112	1	0	0	0	0	1	0.998181818	-0	110	1	1.05	0.95;
	113	1	0	0	0	0	1	0.986363636	-0	110	1	1.05	0.95;
	114	2	0	0	0	0	1	1	0	10	1	1.05	0.95;
	115	2	0	0	0	0	1	1	0	10	1	1.05	0.95;
	116	1	0	0	0	0	1	0.984545455	-0	110	1	1.05	0.95;
	117	1	0	0	0	0	1	0.984545455	-0	110	1	1.05	0.95;
	118	1	6.084	1.01	0	0	1	1	-0	10	1	1.05	0.95;
	119	1	6.084	1.01	0	0	1	1	-0	10	1	1.05	0.95;
	120	1	0	0	0	0	1	0.986363636	-0	110	1	1.05	0.95;
	121	1	3.249	0.758	0	0	1	1	-0	10	1	1.05	0.95;
	122	1	3.249	0.758	0	0	1	1	-0	10	1	1.05	0.95;
	123	1	0	0	0	0	1	0.997272727	-0	110	1	1.05	0.95;
	124	1	0	0	0	0	1	0.996363636	-0	110	1	1.05	0.95;
	125	2	0	0	0	0	1	1	0	10	1	1.05	0.95;
	126	1	3.249	0.758	0	0	1	1.01	-0	10	1	1.05	0.95;
	127	1	3.249	0.758	0	0	1	1.01	-0	10	1	1.05	0.95;
	128	1	0	0	0	0	1	0.999090909	-0	110	1	1.05	0.95;
	129	1	0	0	0	0	1	1	-0	110	1	1.05	0.95;
	130	2	0	0	0	0	1	1	-0	110	1	1.05	0.95;
	131	1	0	0	0	0	1	1	-0	110	1	1.05	0.95;
	132	1	2.027	0.303	0	0	1	1.02	-0	10	1	1.05	0.95;
	133	1	2.027	0.303	0	0	1	1.02	-0	10	1	1.05	0.95;
	134	1	0	0	0	0	1	0.998181818	-0	110	1	1.05	0.95;
	135	1	6.104	2.021	0	0	1	1.01	-0	10	1	1.05	0.95;
	136	1	6.104	2.021	0	0	1	1.01	-0	10	1	1.05	0.95;
	137	1	12.687	2.728	0	0	1	1.01	-0	10	1	1.05	0.95;
	138	1	12.687	2.728	0	0	1	1.01	-0	10	1	1.05	0.95;
	139	1	0	0	0	0	1	0.998181818	-0	110	1	1.05	0.95;
	140	1	0	0	0	0	1	1	-0	110	1	1.05	0.95;
	141	2	0	0	0	0	1	1	-0	110	1	1.05	0.95;
	142	1	0	0	0	0	1	1	-0	110	1	1.05	0.95;
	143	2	0	0	0	0	1	1	-0	110	1	1.05	0.95;
	144	1	0	0	0	0	1	1	-0	110	1	1.05	0.95;
	145	1	2.027	0.303	0	0	1	1.02	-0	10	1	1.05	0.95;
	146	1	2.027	0.303	0	0	1	1.02	-0	10	1	1.05	0.95;
	147	1	0	0	0	0	1	1	-0	110	1	1.05	0.95;
	148	1	2.027	0.303	0	0	1	1	-0	20	1	1.05	0.95;
	149	1	0	0	0	0	1	1	-0	20	1	1.05	0.95;
	150	1	2.027	0.303	0	0	1	1.005	-0	20	1	1.05	0.95;
	151	1	0	0	0	0	1	1.005	-0	20	1	1.05	0.95;
	152	1	0	0	0	0	1	1.005	-0	20	1	1.05	0.95;
	153	1	2.027	0.303	0	0	1	1.02	-0	10	1	1.05	0.95;
	154	1	0	0	0	0	1	1.01545455	-0	220	1	1.05	0.95;
	155	1	0	0	0	0	1	1.00090909	-0	110	1	1.05	0.95;
	156	1	0	0	0	0	1	1	-0	110	1	1.05	0.95;
	157	2	0	0	0	0	1	1	-0	110	1	1.05	0.95;
	158	1	0	0	0	0	1	1	-0	110	1	1.05	0.95;
	159	1	14.089	2.122	0	0	1	1.01	-0	10	1	1.05	0.95;
	160	1	0	0	0	0	1	1.01	-0	10	1	1.05	0.95;
	161	1	14.089	2.122	0	0	1	1.01	-0	10	1	1.05	0.95;
	162	1	0	0	0	0	1	1.01409091	-0	220	1	1.05	0.95;
	163	1	2.027	0.303	0	0	1	1.02	-0	10	1	1.05	0.95;
	164	1	2.027	0.303	0	0	1	1.02	-0	10	1	1.05	0.95;
	165	1	2.027	0.303	0	0	1	1.02	-0	10	1	1.05	0.95;
	166	1	0	0	0	0	1	0.996363636	-0	110	1	1.05	0.95;
	167	1	26.406	6.567	0	0	1	0.99	-0	10	1	1.05	0.95;
	168	1	26.406	6.567	0	0	1	0.99	-0	10	1	1.05	0.95;
	169	1	0	0	0	0	1	1	-0	110	1	1.05	0.95;
	170	2	0	0	0	0	1	1	-0	110	1	1.05	0.95;
	171	1	0	0	0	0	1	1	-0	110	1	1.05	0.95;
	172	1	12.964	1.415	0	0	1	1.01	-0	10	1	1.05	0.95;
	173	1	12.964	1.415	0	0	1	1.01	-0	10	1	1.05	0.95;
	174	1	0	0	0	0	1	1.00454545	-0	110	1	1.05	0.95;
	175	1	0	0	0	0	1	1.00454545	-0	110	1	1.05	0.95;
	176	1	0	0	0	0	1	1	-0	110	1	1.05	0.95;
	177	1	0	0	0	0	1	1	-0	110	1	1.05	0.95;
	178	2	0	0	0	0	1	1	-0	110	1	1.05	0.95;
	179	2	0	0	0	0	1	1	-0	10	1	1.05	0.95;
	180	1	0	0	0	0	1	0.984545455	-0	110	1	1.05	0.95;
	181	1	0	0	0	0	1	0.992727273	-0	110	1	1.05	0.95;
	182	1	0	0	0	0	1	0.992727273	-0	110	1	1.05	0.95;
	183	2	0	0	0	0	1	1	-0	10	1	1.05	0.95;
	184	2	0	0	0	0	1	1	-0	10	1	1.05	0.95;
	185	1	0	0	0	0	1	0.992727273	-0	110	1	1.05	0.95;
	186	1	0	0	0	0	1	0.989090909	-0	110	1	1.05	0.95;
	187	1	0	0	0	0	1	0.989090909	-0	110	1	1.05	0.95;
	188	1	0	0	0	0	1	0.999090909	-0	110	1	1.05	0.95;
	189	1	0	0	0	0	1	1	-0	110	1	1.05	0.95;
	190	2	0	0	0	0	1	1	-0	110	1	1.05	0.95;
	191	1	0	0	0	0	1	0.997272727	-0	110	1	1.05	0.95;
	192	1	0	0	0	0	1	0.997272727	-0	110	1	1.05	0.95;
	193	1	0	0	0	0	1	0.991818182	-0	110	1	1.05	0.95;
	194	1	0	0	0	0	1	0.991818182	-0	110	1	1.05	0.95;
	195	1	0	0	0	0	1	0.989090909	-0	110	1	1.05	0.95;
	196	1	0	0	0	0	1	0.999090909	-0	110	1	1.05	0.95;
	197	1	0	0	0	0	1	1	-0	110	1	1.05	0.95;
	198	1	0	0	0	0	1	1	-0	110	1	1.05	0.95;
	199	1	0	0	0	0	1	1	-0	110	1	1.05	0.95;
	200	1	0	0	0	0	1	0.999090909	-0	110	1	1.05	0.95;
...
];

%% generator data
%	bus	Pg	Qg	Qmax	Qmin	Vg	mBase	status	Pmax	Pmin	Pc1	Pc2	Qc1min	Qc1max	Qc2min	Qc2max	ramp_agc	ramp_10	ramp_30	ramp_q	apf
mpc.gen = [
	36	    80.28	-7.386	97	-97	1	100	1	97	0	0	0	0	0	0	0	0	0	0	0	0;
	35	    80.28	-7.386	97	-97	1	100	1	97	0	0	0	0	0	0	0	0	0	0	0	0;
	1067	60.21	4.712	70	-70	1	100	1	70	0	0	0	0	0	0	0	0	0	0	0	0;
	1072	60.21	4.652	70	-70	1	100	1	70	0	0	0	0	0	0	0	0	0	0	0	0;
	544	    110.37	3.752	125	-125	1	100	1	125	0	0	0	0	0	0	0	0	0	0	0	0;
	818	    50.16	2.328	56	-56	1	100	1	56	0	0	0	0	0	0	0	0	0	0	0	0;
	32	    401.39	-30.852	481	-481	1	100	1	481	0	0	0	0	0	0	0	0	0	0	0	0;
	26	    301.34	29.5	465	-465	1	100	1	465	0	0	0	0	0	0	0	0	0	0	0	0;
	920	    301.1	76.926	380	-380	1	100	1	380	0	0	0	0	0	0	0	0	0	0	0	0;
	863	    301.29	97.484	445	-445	1	100	1	445	0	0	0	0	0	0	0	0	0	0	0	0;
	859	    301.3	89.92	448	-448	1.02	100	1	448	0	0	0	0	0	0	0	0	0	0	0	0;
	81	    24.96	5.518	151	-151	1	100	1	151	0	0	0	0	0	0	0	0	0	0	0	0;
	986	    1.09	28.518	102	-102	1.02	100	1	102	0	0	0	0	0	0	0	0	0	0	0	0;
	1179	401.35	15.532	465	-465	1.01	100	1	465	0	0	0	0	0	0	0	0	0	0	0	0;
	911	    200.9	-35.78	311	-311	1	100	1	311	0	0	0	0	0	0	0	0	0	0	0	0;
	908	    200.9	-35.78	311	-311	1	100	1	311	0	0	0	0	0	0	0	0	0	0	0	0;
	903	    200.9	-35.91	311	-311	1	100	1	311	0	0	0	0	0	0	0	0	0	0	0	0;
	1141	0.98	20.986	92	-92	1	100	1	92	0	0	0	0	0	0	0	0	0	0	0	0;
	475	    1.26	24.6	118	-118	1	100	1	118	0	0	0	0	0	0	0	0	0	0	0	0;
	179	    0.46	0.024	43	-43	1	100	1	43	0	0	0	0	0	0	0	0	0	0	0	0;
	854	    60.19	16.438	66	-66	1.02	100	1	66	0	0	0	0	0	0	0	0	0	0	0	0;
	861	    50.53	103.192	184	-184	1	100	1	184	0	0	0	0	0	0	0	0	0	0	0	0;
	245	    0.6	12.6	56	-56	1.02	100	1	56	0	0	0	0	0	0	0	0	0	0	0	0;
	1120	0.62	-0.884	58	-58	1	100	1	58	0	0	0	0	0	0	0	0	0	0	0	0;
	1122	0.62	-0.824	58	-58	1	100	1	58	0	0	0	0	0	0	0	0	0	0	0	0;
	1127	240.72	-53.874	260	-260	1.02	100	1	260	0	0	0	0	0	0	0	0	0	0	0	0;
	42	1.03	5.608	97	-97	1	100	1	97	0	0	0	0	0	0	0	0	0	0	0	0;
	917	351.25	-50.14	432	-432	1	100	1	432	0	0	0	0	0	0	0	0	0	0	0	0;
	184	15.07	2.124	22	-22	1	100	1	22	0	0	0	0	0	0	0	0	0	0	0	0;
	183	19.85	2.504	22	-22	1	100	1	22	0	0	0	0	0	0	0	0	0	0	0	0;
	1051	19.85	2.482	21	-21	1	100	1	21	0	0	0	0	0	0	0	0	0	0	0	0;
	1050	19.85	2.482	21	-21	1	100	1	21	0	0	0	0	0	0	0	0	0	0	0	0;
	336	-0.05	1.14	5	-5	1.02	100	1	5	0	0	0	0	0	0	0	0	0	0	0	0;
	125	14.05	1.14	15	-15	1	100	1	15	0	0	0	0	0	0	0	0	0	0	0	0;
	332	19.84	-0.024	23	-23	1	100	1	23	0	0	0	0	0	0	0	0	0	0	0	0;
	331	20.07	-0.014	23	-23	1	100	1	23	0	0	0	0	0	0	0	0	0	0	0	0;
	374	8.03	0.28	10	-10	1	100	1	10	0	0	0	0	0	0	0	0	0	0	0	0;
	373	8.03	0.28	10	-10	1	100	1	10	0	0	0	0	0	0	0	0	0	0	0	0;
	115	3.01	0.698	4	-4	1	100	1	4	0	0	0	0	0	0	0	0	0	0	0	0;
	114	7.02	1.466	8	-8	1	100	1	8	0	0	0	0	0	0	0	0	0	0	0	0;
	575	10.05	0.9	15	-15	1	100	1	15	0	0	0	0	0	0	0	0	0	0	0	0;
	577	10.05	0.9	15	-15	1	100	1	15	0	0	0	0	0	0	0	0	0	0	0	0;
	574	3.01	0.258	4	-4	1	100	1	4	0	0	0	0	0	0	0	0	0	0	0	0;
	1006	-0.02	0.454	2	-2	1.02	100	1	2	0	0	0	0	0	0	0	0	0	0	0	0;
	856	100.46	69.03	151	-151	1.02	100	1	151	0	0	0	0	0	0	0	0	0	0	0	0;
	857	100.46	69.03	151	-151	1.02	100	1	151	0	0	0	0	0	0	0	0	0	0	0	0;
	1	54.52	180.56	1500	-1500	1	100	1	1500	0	0	0	0	0	0	0	0	0	0	0	0;
	1	971.29	130.69	5000	-5000	1	100	1	5000	0	0	0	0	0	0	0	0	0	0	0	0;
	335	4.57	9.61	50	-50	1	100	1	50	0	0	0	0	0	0	0	0	0	0	0	0;
	383	6.39	1.36	70	-70	1	100	1	70	0	0	0	0	0	0	0	0	0	0	0	0;
	595	0.91	8	10	-10	0.994545455	100	1	10	0	0	0	0	0	0	0	0	0	0	0	0;
	285	0.82	7	9	-9	0.989090909	100	1	9	0	0	0	0	0	0	0	0	0	0	0	0;
	958	0.09	0.5	1	-1	0.991818182	100	1	1	0	0	0	0	0	0	0	0	0	0	0	0;
	944	0.27	-2	3	-3	1.00090909	100	1	3	0	0	0	0	0	0	0	0	0	0	0	0;
	358	5.02	12.7	55	-55	1	100	1	55	0	0	0	0	0	0	0	0	0	0	0	0;
	932	4.57	38.13	50	-50	1	100	1	50	0	0	0	0	0	0	0	0	0	0	0	0;
	248	0.64	5	7	-7	1	100	1	7	0	0	0	0	0	0	0	0	0	0	0	0;
	342	4.11	3.4	45	-45	1	100	1	45	0	0	0	0	0	0	0	0	0	0	0	0;
	292	0.82	7	9	-9	0.997272727	100	1	9	0	0	0	0	0	0	0	0	0	0	0	0;
	258	1.46	10.23	16	-16	1	100	1	16	0	0	0	0	0	0	0	0	0	0	0	0;
	366	6.39	2.12	70	-70	1	100	1	70	0	0	0	0	0	0	0	0	0	0	0	0;
	362	4.57	10.79	50	-50	1	100	1	50	0	0	0	0	0	0	0	0	0	0	0	0;
	443	0.09	0.5	1	-1	0.99	100	1	1	0	0	0	0	0	0	0	0	0	0	0	0;
	662	8.22	34.18	90	-90	1	100	1	90	0	0	0	0	0	0	0	0	0	0	0	0;
	529	27.4	45.99	300	-300	1	100	1	300	0	0	0	0	0	0	0	0	0	0	0	0;
	562	2.1	16	23	-23	0.996363636	100	1	23	0	0	0	0	0	0	0	0	0	0	0	0;
	265	0.46	4	5	-5	0.995454545	100	1	5	0	0	0	0	0	0	0	0	0	0	0	0;
	182	0.82	7	9	-9	0.992727273	100	1	9	0	0	0	0	0	0	0	0	0	0	0	0;
	708	15.53	26.44	170	-170	1	100	1	170	0	0	0	0	0	0	0	0	0	0	0	0;
	55	4.47	34.17	49	-49	1	100	1	49	0	0	0	0	0	0	0	0	0	0	0	0;
	64	5.02	3.6	55	-55	1	100	1	55	0	0	0	0	0	0	0	0	0	0	0	0;
	745	3.47	17.05	38	-38	1	100	1	38	0	0	0	0	0	0	0	0	0	0	0	0;
	748	3.74	5.38	41	-41	1	100	1	41	0	0	0	0	0	0	0	0	0	0	0	0;
	711	1.37	12	15	-15	0.985454545	100	1	15	0	0	0	0	0	0	0	0	0	0	0	0;
	178	2.83	5.73	31	-31	1	100	1	31	0	0	0	0	0	0	0	0	0	0	0	0;
	73	2.83	14.67	31	-31	1	100	1	31	0	0	0	0	0	0	0	0	0	0	0	0;
	740	4.02	-5.1	44	-44	1	100	1	44	0	0	0	0	0	0	0	0	0	0	0	0;
	705	0.18	1	2	-2	0.991818182	100	1	2	0	0	0	0	0	0	0	0	0	0	0	0;
	1043	3.01	19.79	33	-33	1	100	1	33	0	0	0	0	0	0	0	0	0	0	0	0;
	759	3.84	32	42	-42	0.996363636	100	1	42	0	0	0	0	0	0	0	0	0	0	0	0;
	771	0.18	1	2	-2	0.980909091	100	1	2	0	0	0	0	0	0	0	0	0	0	0	0;
	157	2.83	10.37	31	-31	1	100	1	31	0	0	0	0	0	0	0	0	0	0	0	0;
	568	3.29	30	36	-36	0.993636364	100	1	36	0	0	0	0	0	0	0	0	0	0	0	0;
	784	0.46	4	5	-5	0.972727273	100	1	5	0	0	0	0	0	0	0	0	0	0	0	0;
	602	5.66	-48	62	-62	0.997272727	100	1	62	0	0	0	0	0	0	0	0	0	0	0	0;
	557	0.91	8	10	-10	0.984545455	100	1	10	0	0	0	0	0	0	0	0	0	0	0	0;
	775	1.74	14	19	-19	0.981818182	100	1	19	0	0	0	0	0	0	0	0	0	0	0	0;
	593	3.65	30	40	-40	0.991818182	100	1	40	0	0	0	0	0	0	0	0	0	0	0	0;
	107	3.47	8.71	38	-38	1	100	1	38	0	0	0	0	0	0	0	0	0	0	0	0;
	99	0.46	4	5	-5	0.997272727	100	1	5	0	0	0	0	0	0	0	0	0	0	0	0;
	130	1.92	3.81	21	-21	1	100	1	21	0	0	0	0	0	0	0	0	0	0	0	0;
	1109	3.01	4.07	33	-33	1	100	1	33	0	0	0	0	0	0	0	0	0	0	0	0;
	84	1.46	9.85	16	-16	1	100	1	16	0	0	0	0	0	0	0	0	0	0	0	0;
	52	0.09	0.5	1	-1	0.98	100	1	1	0	0	0	0	0	0	0	0	0	0	0	0;
	175	1.64	-13	18	-18	1.00454545	100	1	18	0	0	0	0	0	0	0	0	0	0	0	0;
	59	10.05	0.05	110	-110	1	100	1	110	0	0	0	0	0	0	0	0	0	0	0	0;
	80	1.37	12	15	-15	0.997272727	100	1	15	0	0	0	0	0	0	0	0	0	0	0	0;
	112	3.29	30	36	-36	0.998181818	100	1	36	0	0	0	0	0	0	0	0	0	0	0	0;
	48	0.09	0.5	1	-1	0.975454545	100	1	1	0	0	0	0	0	0	0	0	0	0	0	0;
	77	4.38	26.87	48	-48	1	100	1	48	0	0	0	0	0	0	0	0	0	0	0	0;
	1107	5.94	14.78	65	-65	1	100	1	65	0	0	0	0	0	0	0	0	0	0	0	0;
	307	1.46	1.52	16	-16	1	100	1	16	0	0	0	0	0	0	0	0	0	0	0	0;
	237	0.64	3.58	7	-7	1	100	1	7	0	0	0	0	0	0	0	0	0	0	0	0;
	229	3.65	13.57	40	-40	1	100	1	40	0	0	0	0	0	0	0	0	0	0	0	0;
	983	0.46	4	5	-5	0.997272727	100	1	5	0	0	0	0	0	0	0	0	0	0	0	0;
	226	4.11	0.99	45	-45	1	100	1	45	0	0	0	0	0	0	0	0	0	0	0	0;
	190	4.38	30.78	48	-48	1	100	1	48	0	0	0	0	0	0	0	0	0	0	0	0;
	387	3.2	0.67	35	-35	1	100	1	35	0	0	0	0	0	0	0	0	0	0	0	0;
	1010	3.2	-0.7	35	-35	1	100	1	35	0	0	0	0	0	0	0	0	0	0	0	0;
	222	4.38	40	48	-48	1	100	1	48	0	0	0	0	0	0	0	0	0	0	0	0;
	1023	0.82	7	9	-9	0.989090909	100	1	9	0	0	0	0	0	0	0	0	0	0	0	0;
	242	2.83	-8.41	31	-31	1	100	1	31	0	0	0	0	0	0	0	0	0	0	0	0;
	1003	0.91	8	10	-10	0.999090909	100	1	10	0	0	0	0	0	0	0	0	0	0	0	0;
	348	1.46	7.09	16	-16	1	100	1	16	0	0	0	0	0	0	0	0	0	0	0	0;
	327	8.22	5.66	90	-90	1	100	1	90	0	0	0	0	0	0	0	0	0	0	0	0;
	255	1.83	-15.96	20	-20	1.00363636	100	1	20	0	0	0	0	0	0	0	0	0	0	0	0;
	214	1.83	0.93	20	-20	1	100	1	20	0	0	0	0	0	0	0	0	0	0	0	0;
	204	1.83	-11.97	20	-20	1	100	1	20	0	0	0	0	0	0	0	0	0	0	0	0;
	209	1.83	16	20	-20	0.997272727	100	1	20	0	0	0	0	0	0	0	0	0	0	0	0;
	1046	3.2	23	35	-35	1	100	1	35	0	0	0	0	0	0	0	0	0	0	0	0;
	1039	1.83	16	20	-20	0.998181818	100	1	20	0	0	0	0	0	0	0	0	0	0	0	0;
	1071	1.83	16	20	-20	0.997272727	100	1	20	0	0	0	0	0	0	0	0	0	0	0	0;
	1090	2.28	-0.89	25	-25	1	100	1	25	0	0	0	0	0	0	0	0	0	0	0	0;
	1092	3.2	-20.03	35	-35	1	100	1	35	0	0	0	0	0	0	0	0	0	0	0	0;
	170	1.83	14.38	20	-20	1	100	1	20	0	0	0	0	0	0	0	0	0	0	0	0;
	141	3.65	4.16	40	-40	1	100	1	40	0	0	0	0	0	0	0	0	0	0	0	0;
	143	2.74	1.56	30	-30	1	100	1	30	0	0	0	0	0	0	0	0	0	0	0	0;
	105	1.83	7.78	20	-20	1	100	1	20	0	0	0	0	0	0	0	0	0	0	0	0;
	586	1.83	16	20	-20	0.984545455	100	1	20	0	0	0	0	0	0	0	0	0	0	0	0;
	597	3.65	23.18	40	-40	1	100	1	40	0	0	0	0	0	0	0	0	0	0	0	0;
	605	3.65	19.35	40	-40	1	100	1	40	0	0	0	0	0	0	0	0	0	0	0	0;
	610	1.83	16	20	-20	0.999090909	100	1	20	0	0	0	0	0	0	0	0	0	0	0	0;
	928	1.83	16	20	-20	0.995454545	100	1	20	0	0	0	0	0	0	0	0	0	0	0	0;
	989	1.83	16	20	-20	0.997272727	100	1	20	0	0	0	0	0	0	0	0	0	0	0	0;
	1030	5.48	13.66	60	-60	1	100	1	60	0	0	0	0	0	0	0	0	0	0	0	0;
	551	1.83	16	20	-20	0.999090909	100	1	20	0	0	0	0	0	0	0	0	0	0	0	0;
	547	8.22	2.31	90	-90	1	100	1	90	0	0	0	0	0	0	0	0	0	0	0	0;
	736	3.47	9.18	38	-38	1	100	1	38	0	0	0	0	0	0	0	0	0	0	0	0;
	951	4.11	5.08	45	-45	1	100	1	45	0	0	0	0	0	0	0	0	0	0	0	0;
	1056	6.94	2.18	76	-76	1	100	1	76	0	0	0	0	0	0	0	0	0	0	0	0;
];

%% branch data
%	fbus	tbus	r	x	b	rateA	rateB	rateC	ratio	angle	status	angmin	angmax
mpc.branch = [
	897	896	5e-05	0	0	10000	10000	10000	0	0	1	-360	360;
	402	921	5e-05	0	0	10000	10000	10000	0	0	1	-360	360;
	965	966	5e-05	0	0	10000	10000	10000	0	0	1	-360	360;
	968	967	5e-05	0	0	10000	10000	10000	0	0	1	-360	360;
	439	440	5e-05	0	0	10000	10000	10000	0	0	1	-360	360;
	439	443	5e-05	0	0	10000	10000	10000	0	0	1	-360	360;
	442	441	5e-05	0	0	10000	10000	10000	0	0	1	-360	360;
	403	404	5e-05	0	0	10000	10000	10000	0	0	1	-360	360;
	280	269	5e-05	0	0	10000	10000	10000	0	0	1	-360	360;
	406	405	5e-05	0	0	10000	10000	10000	0	0	1	-360	360;
	895	864	5e-05	0	0	10000	10000	10000	0	0	1	-360	360;
	272	273	5e-05	0	0	10000	10000	10000	0	0	1	-360	360;
	275	274	5e-05	0	0	10000	10000	10000	0	0	1	-360	360;
	427	428	5e-05	0	0	10000	10000	10000	0	0	1	-360	360;
	430	429	5e-05	0	0	10000	10000	10000	0	0	1	-360	360;
	425	426	5e-05	0	0	10000	10000	10000	0	0	1	-360	360;
	433	432	5e-05	0	0	10000	10000	10000	0	0	1	-360	360;
	271	270	5e-05	0	0	10000	10000	10000	0	0	1	-360	360;
	279	278	5e-05	0	0	10000	10000	10000	0	0	1	-360	360;
	451	452	5e-05	0	0	10000	10000	10000	0	0	1	-360	360;
	454	453	5e-05	0	0	10000	10000	10000	0	0	1	-360	360;
	455	456	5e-05	0	0	10000	10000	10000	0	0	1	-360	360;
	458	457	5e-05	0	0	10000	10000	10000	0	0	1	-360	360;
	919	918	5e-05	0	0	10000	10000	10000	0	0	1	-360	360;
	880	881	5e-05	0	0	10000	10000	10000	0	0	1	-360	360;
	883	882	5e-05	0	0	10000	10000	10000	0	0	1	-360	360;
	886	885	5e-05	0	0	10000	10000	10000	0	0	1	-360	360;
	889	888	5e-05	0	0	10000	10000	10000	0	0	1	-360	360;
	876	875	5e-05	0	0	10000	10000	10000	0	0	1	-360	360;
	879	878	5e-05	0	0	10000	10000	10000	0	0	1	-360	360;
	874	873	5e-05	0	0	10000	10000	10000	0	0	1	-360	360;
	892	891	5e-05	0	0	10000	10000	10000	0	0	1	-360	360;
	869	870	5e-05	0	0	10000	10000	10000	0	0	1	-360	360;
	872	871	5e-05	0	0	10000	10000	10000	0	0	1	-360	360;
	865	866	5e-05	0	0	10000	10000	10000	0	0	1	-360	360;
	868	867	5e-05	0	0	10000	10000	10000	0	0	1	-360	360;
	446	447	5e-05	0	0	10000	10000	10000	0	0	1	-360	360;
	449	448	5e-05	0	0	10000	10000	10000	0	0	1	-360	360;
	508	509	5e-05	0	0	10000	10000	10000	0	0	1	-360	360;
	511	510	5e-05	0	0	10000	10000	10000	0	0	1	-360	360;
	513	514	5e-05	0	0	10000	10000	10000	0	0	1	-360	360;
	822	821	5e-05	0	0	10000	10000	10000	0	0	1	-360	360;
	400	401	5e-05	0	0	10000	10000	10000	0	0	1	-360	360;
	525	507	5e-05	0	0	10000	10000	10000	0	0	1	-360	360;
	506	505	5e-05	0	0	10000	10000	10000	0	0	1	-360	360;
	826	825	5e-05	0	0	10000	10000	10000	0	0	1	-360	360;
	497	496	5e-05	0	0	10000	10000	10000	0	0	1	-360	360;
	828	827	5e-05	0	0	10000	10000	10000	0	0	1	-360	360;
	498	499	5e-05	0	0	10000	10000	10000	0	0	1	-360	360;
	501	500	5e-05	0	0	10000	10000	10000	0	0	1	-360	360;
	493	492	5e-05	0	0	10000	10000	10000	0	0	1	-360	360;
	834	833	5e-05	0	0	10000	10000	10000	0	0	1	-360	360;
	494	495	5e-05	0	0	10000	10000	10000	0	0	1	-360	360;
	830	829	5e-05	0	0	10000	10000	10000	0	0	1	-360	360;
	488	489	5e-05	0	0	10000	10000	10000	0	0	1	-360	360;
	491	490	5e-05	0	0	10000	10000	10000	0	0	1	-360	360;
	640	641	5e-05	0	0	10000	10000	10000	0	0	1	-360	360;
	643	642	5e-05	0	0	10000	10000	10000	0	0	1	-360	360;
	645	644	5e-05	0	0	10000	10000	10000	0	0	1	-360	360;
	648	647	5e-05	0	0	10000	10000	10000	0	0	1	-360	360;
	639	638	5e-05	0	0	10000	10000	10000	0	0	1	-360	360;
	652	651	5e-05	0	0	10000	10000	10000	0	0	1	-360	360;
	636	637	5e-05	0	0	10000	10000	10000	0	0	1	-360	360;
	654	653	5e-05	0	0	10000	10000	10000	0	0	1	-360	360;
	412	413	5e-05	0	0	10000	10000	10000	0	0	1	-360	360;
	480	487	5e-05	0	0	10000	10000	10000	0	0	1	-360	360;
	618	619	5e-05	0	0	10000	10000	10000	0	0	1	-360	360;
	619	620	5e-05	0	0	10000	10000	10000	0	0	1	-360	360;
	625	622	5e-05	0	0	10000	10000	10000	0	0	1	-360	360;
	679	680	5e-05	0	0	10000	10000	10000	0	0	1	-360	360;
	682	681	5e-05	0	0	10000	10000	10000	0	0	1	-360	360;
	627	626	5e-05	0	0	10000	10000	10000	0	0	1	-360	360;
	635	634	5e-05	0	0	10000	10000	10000	0	0	1	-360	360;
	628	629	5e-05	0	0	10000	10000	10000	0	0	1	-360	360;
	631	630	5e-05	0	0	10000	10000	10000	0	0	1	-360	360;
	683	684	5e-05	0	0	10000	10000	10000	0	0	1	-360	360;
	686	685	5e-05	0	0	10000	10000	10000	0	0	1	-360	360;
	477	476	5e-05	0	0	10000	10000	10000	0	0	1	-360	360;
	852	851	5e-05	0	0	10000	10000	10000	0	0	1	-360	360;
	836	837	5e-05	0	0	10000	10000	10000	0	0	1	-360	360;
	839	838	5e-05	0	0	10000	10000	10000	0	0	1	-360	360;
	481	482	5e-05	0	0	10000	10000	10000	0	0	1	-360	360;
	484	483	5e-05	0	0	10000	10000	10000	0	0	1	-360	360;
	486	485	5e-05	0	0	10000	10000	10000	0	0	1	-360	360;
	848	847	5e-05	0	0	10000	10000	10000	0	0	1	-360	360;
	459	460	5e-05	0	0	10000	10000	10000	0	0	1	-360	360;
	462	461	5e-05	0	0	10000	10000	10000	0	0	1	-360	360;
	420	421	5e-05	0	0	10000	10000	10000	0	0	1	-360	360;
	423	422	5e-05	0	0	10000	10000	10000	0	0	1	-360	360;
	841	842	5e-05	0	0	10000	10000	10000	0	0	1	-360	360;
	844	843	5e-05	0	0	10000	10000	10000	0	0	1	-360	360;
	419	418	5e-05	0	0	10000	10000	10000	0	0	1	-360	360;
	470	469	5e-05	0	0	10000	10000	10000	0	0	1	-360	360;
	417	416	5e-05	0	0	10000	10000	10000	0	0	1	-360	360;
	414	472	5e-05	0	0	10000	10000	10000	0	0	1	-360	360;
	415	471	5e-05	0	0	10000	10000	10000	0	0	1	-360	360;
	411	410	5e-05	0	0	10000	10000	10000	0	0	1	-360	360;
	858	859	5e-05	0	0	10000	10000	10000	0	0	1	-360	360;
	858	860	5e-05	0	0	10000	10000	10000	0	0	1	-360	360;
	408	407	5e-05	0	0	10000	10000	10000	0	0	1	-360	360;
	408	409	5e-05	0	0	10000	10000	10000	0	0	1	-360	360;
	473	474	5e-05	0	0	10000	10000	10000	0	0	1	-360	360;
	1176	33	5e-05	0	0	10000	10000	10000	0	0	1	-360	360;
	1174	1175	5e-05	0	0	10000	10000	10000	0	0	1	-360	360;
	716	717	5e-05	0	0	10000	10000	10000	0	0	1	-360	360;
	695	696	5e-05	0	0	10000	10000	10000	0	0	1	-360	360;
	181	1049	5e-05	0	0	10000	10000	10000	0	0	1	-360	360;
	181	185	5e-05	0	0	10000	10000	10000	0	0	1	-360	360;
	181	182	5e-05	0	0	10000	10000	10000	0	0	1	-360	360;
	617	616	5e-05	0	0	10000	10000	10000	0	0	1	-360	360;
	673	661	5e-05	0	0	10000	10000	10000	0	0	1	-360	360;
	661	662	5e-05	0	0	10000	10000	10000	0	0	1	-360	360;
	676	675	5e-05	0	0	10000	10000	10000	0	0	1	-360	360;
	1089	1097	5e-05	0	0	10000	10000	10000	0	0	1	-360	360;
	1089	1090	5e-05	0	0	10000	10000	10000	0	0	1	-360	360;
	1099	1098	5e-05	0	0	10000	10000	10000	0	0	1	-360	360;
	566	565	5e-05	0	0	10000	10000	10000	0	0	1	-360	360;
	1066	1070	5e-05	0	0	10000	10000	10000	0	0	1	-360	360;
	1070	1071	5e-05	0	0	10000	10000	10000	0	0	1	-360	360;
	660	659	5e-05	0	0	10000	10000	10000	0	0	1	-360	360;
	693	766	5e-05	0	0	10000	10000	10000	0	0	1	-360	360;
	596	598	5e-05	0	0	10000	10000	10000	0	0	1	-360	360;
	596	597	5e-05	0	0	10000	10000	10000	0	0	1	-360	360;
	106	108	5e-05	0	0	10000	10000	10000	0	0	1	-360	360;
	106	107	5e-05	0	0	10000	10000	10000	0	0	1	-360	360;
	66	154	5e-05	0	0	10000	10000	10000	0	0	1	-360	360;
	88	162	5e-05	0	0	10000	10000	10000	0	0	1	-360	360;
	86	87	5e-05	0	0	10000	10000	10000	0	0	1	-360	360;
	94	97	5e-05	0	0	10000	10000	10000	0	0	1	-360	360;
	97	99	5e-05	0	0	10000	10000	10000	0	0	1	-360	360;
	97	98	5e-05	0	0	10000	10000	10000	0	0	1	-360	360;
	667	670	5e-05	0	0	10000	10000	10000	0	0	1	-360	360;
	1153	1152	5e-05	0	0	10000	10000	10000	0	0	1	-360	360;
	758	760	5e-05	0	0	10000	10000	10000	0	0	1	-360	360;
	758	759	5e-05	0	0	10000	10000	10000	0	0	1	-360	360;
	129	131	5e-05	0	0	10000	10000	10000	0	0	1	-360	360;
	129	130	5e-05	0	0	10000	10000	10000	0	0	1	-360	360;
	95	96	5e-05	0	0	10000	10000	10000	0	0	1	-360	360;
	770	779	5e-05	0	0	10000	10000	10000	0	0	1	-360	360;
	770	771	5e-05	0	0	10000	10000	10000	0	0	1	-360	360;
	733	700	5e-05	0	0	10000	10000	10000	0	0	1	-360	360;
	733	734	5e-05	0	0	10000	10000	10000	0	0	1	-360	360;
	700	703	5e-05	0	0	10000	10000	10000	0	0	1	-360	360;
	700	702	5e-05	0	0	10000	10000	10000	0	0	1	-360	360;
	700	701	5e-05	0	0	10000	10000	10000	0	0	1	-360	360;
	156	158	5e-05	0	0	10000	10000	10000	0	0	1	-360	360;
	156	157	5e-05	0	0	10000	10000	10000	0	0	1	-360	360;
	160	159	5e-05	0	0	10000	10000	10000	0	0	1	-360	360;
	567	571	5e-05	0	0	10000	10000	10000	0	0	1	-360	360;
	567	568	5e-05	0	0	10000	10000	10000	0	0	1	-360	360;
	124	123	5e-05	0	0	10000	10000	10000	0	0	1	-360	360;
	604	606	5e-05	0	0	10000	10000	10000	0	0	1	-360	360;
	604	605	5e-05	0	0	10000	10000	10000	0	0	1	-360	360;
	1069	1068	5e-05	0	0	10000	10000	10000	0	0	1	-360	360;
	1161	1160	5e-05	0	0	10000	10000	10000	0	0	1	-360	360;
	707	728	5e-05	0	0	10000	10000	10000	0	0	1	-360	360;
	707	708	5e-05	0	0	10000	10000	10000	0	0	1	-360	360;
	56	54	5e-05	0	0	10000	10000	10000	0	0	1	-360	360;
	54	55	5e-05	0	0	10000	10000	10000	0	0	1	-360	360;
	1102	1103	5e-05	0	0	10000	10000	10000	0	0	1	-360	360;
	89	90	5e-05	0	0	10000	10000	10000	0	0	1	-360	360;
	128	91	5e-05	0	0	10000	10000	10000	0	0	1	-360	360;
	1108	1110	5e-05	0	0	10000	10000	10000	0	0	1	-360	360;
	1108	1109	5e-05	0	0	10000	10000	10000	0	0	1	-360	360;
	82	139	5e-05	0	0	10000	10000	10000	0	0	1	-360	360;
	117	116	5e-05	0	0	10000	10000	10000	0	0	1	-360	360;
	140	147	5e-05	0	0	10000	10000	10000	0	0	1	-360	360;
	140	141	5e-05	0	0	10000	10000	10000	0	0	1	-360	360;
	150	152	5e-05	0	0	10000	10000	10000	0	0	1	-360	360;
	148	149	5e-05	0	0	10000	10000	10000	0	0	1	-360	360;
	150	151	5e-05	0	0	10000	10000	10000	0	0	1	-360	360;
	45	1162	5e-05	0	0	10000	10000	10000	0	0	1	-360	360;
	594	668	5e-05	0	0	10000	10000	10000	0	0	1	-360	360;
	594	595	5e-05	0	0	10000	10000	10000	0	0	1	-360	360;
	609	611	5e-05	0	0	10000	10000	10000	0	0	1	-360	360;
	609	610	5e-05	0	0	10000	10000	10000	0	0	1	-360	360;
	27	1190	5e-05	0	0	10000	10000	10000	0	0	1	-360	360;
	769	692	5e-05	0	0	10000	10000	10000	0	0	1	-360	360;
	1091	1094	5e-05	0	0	10000	10000	10000	0	0	1	-360	360;
	1091	1093	5e-05	0	0	10000	10000	10000	0	0	1	-360	360;
	1091	1092	5e-05	0	0	10000	10000	10000	0	0	1	-360	360;
	186	187	5e-05	0	0	10000	10000	10000	0	0	1	-360	360;
	783	782	5e-05	0	0	10000	10000	10000	0	0	1	-360	360;
	783	784	5e-05	0	0	10000	10000	10000	0	0	1	-360	360;
	104	92	5e-05	0	0	10000	10000	10000	0	0	1	-360	360;
	92	93	5e-05	0	0	10000	10000	10000	0	0	1	-360	360;
	104	105	5e-05	0	0	10000	10000	10000	0	0	1	-360	360;
	83	85	5e-05	0	0	10000	10000	10000	0	0	1	-360	360;
	83	84	5e-05	0	0	10000	10000	10000	0	0	1	-360	360;
	31	30	5e-05	0	0	10000	10000	10000	0	0	1	-360	360;
	142	144	5e-05	0	0	10000	10000	10000	0	0	1	-360	360;
	142	143	5e-05	0	0	10000	10000	10000	0	0	1	-360	360;
	57	63	5e-05	0	0	10000	10000	10000	0	0	1	-360	360;
	63	64	5e-05	0	0	10000	10000	10000	0	0	1	-360	360;
	25	689	5e-05	0	0	10000	10000	10000	0	0	1	-360	360;
	590	690	5e-05	0	0	10000	10000	10000	0	0	1	-360	360;
	113	120	5e-05	0	0	10000	10000	10000	0	0	1	-360	360;
	24	23	5e-05	0	0	10000	10000	10000	0	0	1	-360	360;
	570	569	5e-05	0	0	10000	10000	10000	0	0	1	-360	360;
	51	39	5e-05	0	0	10000	10000	10000	0	0	1	-360	360;
...
];

%%-----  OPF Data  -----%%
%% generator cost data
%	1	startup	shutdown	n	x1	y1	...	xn	yn
%	2	startup	shutdown	n	c(n-1)	...	c0
mpc.gencost = [
	2	1500	0	3	0	130	400;
	2	1500	0	3	0	130	400;
	2	1500	0	3	0	130	400;
	2	1500	0	3	0	130	400;
	2	1500	0	3	0	130	400;
	2	1500	0	3	0	130	400;
	2	1500	0	3	0	130	400;
	2	1500	0	3	0	130	400;
	2	1500	0	3	0	130	400;
	2	1500	0	3	0	130	400;
	2	1500	0	3	0	130	400;
	2	1500	0	3	0	130	400;
	2	1500	0	3	0	130	400;
	2	1500	0	3	0	130	400;
	2	1500	0	3	0	130	400;
	2	1500	0	3	0	130	400;
	2	1500	0	3	0	130	400;
	2	1500	0	3	0	130	400;
	2	1500	0	3	0	130	400;
	2	1500	0	3	0	130	400;
	2	1500	0	3	0	130	400;
	2	1500	0	3	0	130	400;
	2	1500	0	3	0	130	400;
	2	1500	0	3	0	130	400;
	2	1500	0	3	0	130	400;
	2	1500	0	3	0	130	400;
	2	1500	0	3	0	130	400;
	2	1500	0	3	0	130	400;
	2	1500	0	3	0	130	400;
	2	1500	0	3	0	130	400;
	2	1500	0	3	0	130	400;
	2	1500	0	3	0	130	400;
	2	1500	0	3	0	130	400;
	2	1500	0	3	0	130	400;
	2	1500	0	3	0	130	400;
	2	1500	0	3	0	130	400;
	2	1500	0	3	0	130	400;
	2	1500	0	3	0	130	400;
	2	1500	0	3	0	130	400;
	2	1500	0	3	0	130	400;
	2	1500	0	3	0	130	400;
	2	1500	0	3	0	130	400;
	2	1500	0	3	0	130	400;
	2	1500	0	3	0	130	400;
	2	1500	0	3	0	130	400;
	2	1500	0	3	0	130	400;
	2	1500	0	3	0	130	400;
	2	1500	0	3	0	130	400;
	2	1500	0	3	0	130	400;
	2	1500	0	3	0	130	400;
	2	1500	0	3	0	130	400;
	2	1500	0	3	0	130	400;
	2	1500	0	3	0	130	400;
	2	1500	0	3	0	130	400;
	2	1500	0	3	0	130	400;
	2	1500	0	3	0	130	400;
	2	1500	0	3	0	130	400;
	2	1500	0	3	0	130	400;
	2	1500	0	3	0	130	400;
	2	1500	0	3	0	130	400;
	2	1500	0	3	0	130	400;
	2	1500	0	3	0	130	400;
	2	1500	0	3	0	130	400;
	2	1500	0	3	0	130	400;
	2	1500	0	3	0	130	400;
	2	1500	0	3	0	130	400;
	2	1500	0	3	0	130	400;
	2	1500	0	3	0	130	400;
	2	1500	0	3	0	130	400;
	2	1500	0	3	0	130	400;
	2	1500	0	3	0	130	400;
	2	1500	0	3	0	130	400;
	2	1500	0	3	0	130	400;
	2	1500	0	3	0	130	400;
	2	1500	0	3	0	130	400;
	2	1500	0	3	0	130	400;
	2	1500	0	3	0	130	400;
	2	1500	0	3	0	130	400;
	2	1500	0	3	0	130	400;
	2	1500	0	3	0	130	400;
	2	1500	0	3	0	130	400;
	2	1500	0	3	0	130	400;
	2	1500	0	3	0	130	400;
	2	1500	0	3	0	130	400;
	2	1500	0	3	0	130	400;
	2	1500	0	3	0	130	400;
	2	1500	0	3	0	130	400;
	2	1500	0	3	0	130	400;
	2	1500	0	3	0	130	400;
	2	1500	0	3	0	130	400;
	2	1500	0	3	0	130	400;
	2	1500	0	3	0	130	400;
	2	1500	0	3	0	130	400;
	2	1500	0	3	0	130	400;
	2	1500	0	3	0	130	400;
	2	1500	0	3	0	130	400;
	2	1500	0	3	0	130	400;
	2	1500	0	3	0	130	400;
	2	1500	0	3	0	130	400;
	2	1500	0	3	0	130	400;
	2	1500	0	3	0	130	400;
	2	1500	0	3	0	130	400;
	2	1500	0	3	0	130	400;
	2	1500	0	3	0	130	400;
	2	1500	0	3	0	130	400;
	2	1500	0	3	0	130	400;
	2	1500	0	3	0	130	400;
	2	1500	0	3	0	130	400;
	2	1500	0	3	0	130	400;
	2	1500	0	3	0	130	400;
	2	1500	0	3	0	130	400;
	2	1500	0	3	0	130	400;
	2	1500	0	3	0	130	400;
	2	1500	0	3	0	130	400;
	2	1500	0	3	0	130	400;
	2	1500	0	3	0	130	400;
	2	1500	0	3	0	130	400;
	2	1500	0	3	0	130	400;
	2	1500	0	3	0	130	400;
	2	1500	0	3	0	130	400;
	2	1500	0	3	0	130	400;
	2	1500	0	3	0	130	400;
	2	1500	0	3	0	130	400;
	2	1500	0	3	0	130	400;
	2	1500	0	3	0	130	400;
	2	1500	0	3	0	130	400;
	2	1500	0	3	0	130	400;
	2	1500	0	3	0	130	400;
	2	1500	0	3	0	130	400;
	2	1500	0	3	0	130	400;
	2	1500	0	3	0	130	400;
	2	1500	0	3	0	130	400;
	2	1500	0	3	0	130	400;
	2	1500	0	3	0	130	400;
	2	1500	0	3	0	130	400;
	2	1500	0	3	0	130	400;
	2	1500	0	3	0	130	400;
	2	1500	0	3	0	130	400;
	2	1500	0	3	0	130	400;
	2	1500	0	3	0	130	400;
];

%% bus names
mpc.bus_name = {
	'BALLY_220_1';
	'BALLY_220_HV';
	'TRG_220_2';
	'TRG_110_1';
	'TRG_220_1';
	'LOU_220_2';
	'LOU_220_1';
	'FLA_220_1';
	'FLA_220_2';
	'CSH_220_1';
	'CSH_220_2';
	'PRO_220_1';
	'MP_220_2';
	'MP_220_1';
	'KPG_220_1';
	'KLN_220_2';
	'KLN_220_1';
	'SH_220_1';
	'SH_220_2';
	'MAY_220_2';
	'DSN_220_1';
	'DSN_220_2';
	'KLS_220_2';
	'KLS_220_1';
	'GI_220_1';
	'GI_20_GI4';
	'CUL_220_1';
	'KRA_220_1';
	'RAF_220_1';
	'GGO_220_2';
	'GGO_220_1';
	'GGO_20_WG';
	'AD_220_2';
	'AD_20_AT4';
	'AD_20_AT2';
	'AD_20_AT1';
	'KRA_220_2';
	'KRA_110_2';
	'KBY_110_2';
	'MR_110_2';
	'TBG_110_2';
	'TBG_10_TBG';
	'RAF_110_1';
	'RAF_110_CAPA';
	'COW_110_1';
	'WHI_110_1';
	'MID_110_1';
	'MID_110_WP';
	'MID_110_2';
	'KRA_110_1';
	'KBY_110_1';
	'KBY_110_WP';
	'MAL_110_1';
	'CHA_110_2';
	'CHA_110_WP';
	'CHA_110_1';
	'GLE_110_1';
	'KCR_110_1';
	'KCR_110_WP';
	'KCR_110_2';
	'KCR_10_2';
	'KCR_10_1';
	'GLE_110_2';
	'GLE_110_WP';
	'BYH_110_1';
	'BYH_220_1';
	'KNR_220_2';
	'KPG_220_2';
	'KPG_110_2';
	'TRL_110_2';
	'TRL_110_1';
	'REM_110_1';
	'REM_110_WP';
	'REM_110_2';
	'REM_10_2';
	'REM_10_1';
	'TRL_110_WP';
	'LEILI_110_KE';
	'KER_110_1';
	'KER_110_WP';
	'KER_10_KER';
	'CKN_110_1';
	'GRO_110_1';
	'GRO_110_WP';
	'GRO_110_2';
	'BVK_110_1';
	'BVK_110_2';
	'BVK_220_1';
	'CLA_220_1';
	'CLA_220_2';
	'CLA_110_2';
	'DMY_110_2';
	'DMY_110_CAPA';
	'BAN_110_1';
	'BRI_110_1';
	'BRI_110_2';
	'BAN_110_2';
	'BAN_110_CAPA';
	'BAN_110_WP';
	'BAN_10_2';
	'BRI_10_2';
	'BRI_10_1';
	'BAN_10_1';
	'DMY_110_1';
	'DMY_110_WP';
	'BLI_110_1';
	'BLI_110_WP';
	'BLI_110_2';
	'BLI_10_2';
	'BLI_10_1';
	'MAC_110_1';
	'MAC_110_WP';
	'IA_110_1';
	'IA_10_LE3';
	'IA_10_LE2';
	'CRO_110_2';
	'CRO_110_1';
	'CRO_10_1';
	'CRO_10_2';
	'IA_110_2';
	'IA_10_2';
	'IA_10_1';
	'CD_110_2';
	'CD_110_1';
	'CD_10_LE1';
	'CD_10_1';
	'CD_10_2';
	'CLA_110_1';
	'BGH_110_1';
	'BGH_110_WP';
	'BGH_110_2';
	'BGH_10_2';
	'BGH_10_1';
	'MAC_110_2';
	'MAC_10_2';
	'MAC_10_1';
	'DMY_10_1';
	'DMY_10_2';
	'CKN_110_2';
	'CGL_110_1';
	'CGL_110_WP';
	'GAE_110_1';
	'GAE_110_WP';
	'GAE_110_2';
	'GAE_10_2';
	'GAE_10_1';
	'CGL_110_2';
	'CGL_20_2';
	'CGL_20_CAPAC';
	'CGL_20_1';
	'CGL_20_CAPAC';
	'CGL_20_CAPAC';
	'CKN_10_2';
	'BYH_220_2';
	'BYH_110_2';
	'CDL_110_1';
	'CDL_110_WP';
	'CDL_110_2';
	'CDL_10_2';
	'CDL_10_CB';
	'CDL_10_1';
	'BVK_220_2';
	'GRO_10_2';
	'GRO_10_1';
	'CKN_10_1';
	'KER_110_2';
	'KER_10_2';
	'KER_10_1';
	'OUG_110_1';
	'OUG_110_WP';
	'OUG_110_2';
	'OUG_10_2';
	'OUG_10_1';
	'KPG_110_1';
	'KPG_110_WP';
	'RAT_110_2';
	'RAT_110_1';
	'RAT_110_WP';
	'RAT_10_RAT';
	'LIM_110_1';
	'AA_110_1';
	'AA_110_WP';
	'AA_10_AA2';
	'AA_10_AA1';
	'AA_110_CAPAC';
	'DRU_110_1';
	'DRU_110_2';
	'ENN_110_2';
	'ENN_110_1';
	'ENN_110_WP';
	'AGL_110_2';
	'AGL_110_1';
	'SH_110_1';
	'SH_110_2';
	'LEILI_110_CS';
	'CSH_110_1';
	'CSH_110_2';
	'CSH_110_CAPA';
	'SAL_110_2';
	'SAL_110_1';
	'KNY_110_1';
	'KNY_110_2';
	'KNY_10_2';
	'KNY_110_WP';
	'KNY_110_CAPA';
	'SCR_110_1';
	'SCR_110_2';
	'SCR_10_2';
	'SCR_110_WP';
	'SCR_10_1';
	'UGL_110_1';
	'UGL_110_2';
	'UGL_10_2';
	'UGL_110_WP';
	'UGL_10_1';
	'KNY_10_1';
	'GAL_110_2';
	'GAL_110_1';
	'GAL_10_1';
	'GAL_10_2';
	'SAL_10_1';
	'SAL_110_WP';
	'SAL_10_2';
	'DLT_110_2';
	'DLT_110_1';
	'DLT_110_WP';
	'CBR_110_2';
	'CBR_110_1';
	'CBR_110_WP';
	'CBG_110_1';
	'CBG_110_2';
	'CBG_10_2';
	'CBG_10_1';
	'BK_110_1';
	'BK_110_2';
	'BK_10_2';
	'BK_110_WP';
	'MOY_110_1';
	'MOY_110_2';
	'TAW_110_2';
	'TAW_110_1';
	'TAW_110_WP';
	'TAW_10_TAW1';
	'TAW_10_1';
	'TAW_10_TAW2';
	'TAW_10_2';
	'MOY_10_2';
	'MOY_110_WP';
	'GLR_110_2';
	'GLR_110_1';
	'CUN_110_1';
	'CUN_110_2';
	'CUN_10_2';
	'CUN_110_CAPA';
	'CUN_110_WP';
	'SLI_110_2';
	'SLI_110_1';
	'SLI_110_WP';
	'FLA_110_1';
	'FLA_110_2';
	'SLB_110_1';
	'SLB_110_2';
	'LA_110_1';
	'LA_110_2';
	'LA_110_WP';
	'MUL_110_1';
	'MUL_110_2';
	'MUL_110_CAPA';
	'CDU_110_2';
	'CLG_110_2';
	'CLG_110_1';
	'MCE_110_1';
	'MCE_110_2';
	'MCE_10_2';
	'MCE_10_CB';
	'MCE_10_1';
	'CLG_10_1';
	'CLG_10_2';
	'CLG_10_CB';
	'CDU_110_1';
	'PLA_110_1';
	'PLA_110_2';
	'DRY_110_1';
	'DRY_110_2';
	'DRY_110_WP';
	'LOU_110_1';
	'LOU_110_2';
	'RRU_110_1';
	'RRU_110_2';
	'SKL_110_1';
	'SKL_110_2';
	'SKL_110_WP';
	'LIS_110_2';
	'LIS_110_1';
	'LIS_110_CAPA';
	'LIS_10_1';
	'LIS_110_CAPA';
	'LIS_10_2';
	'ARV_110_2';
	'ARV_110_1';
	'COS_110_1';
	'COS_110_2';
	'LEILI_110_AR';
	'ARI_110_1';
	'ARI_110_2';
	'ARI_10_2';
	'ARI_110_WP';
	'ARI_10_1';
	'CDY_110_1';
	'CDY_110_2';
	'SRA_110_2';
	'SRA_110_1';
	'CF_110_2A';
	'LET_110_2';
	'LET_110_1';
	'LET_110_SVC';
	'LEILI_110_CL';
	'CLO_110_1';
	'CLO_110_2';
	'CLO_10_2';
	'DRM_110_1';
	'DRM_110_2';
	'DRM_10_2';
	'MEE_110_1';
	'MEE_110_2';
	'MEE_10_2';
	'MEE_110_WP';
	'MEE_10_1';
	'DRM_10_1';
	'CF_110_2B';
	'CF_10_ER4';
	'CF_10_ER3';
	'BIN_110_2';
	'BIN_110_1';
	'BIN_110_WP';
	'BIN_10_BIN';
	'BIN_10_1';
	'BIN_10_2';
	'MRY_110_1';
	'MRY_110_2';
	'MRY_10_2';
	'MRY_110_WP';
	'MRY_10_1';
	'CLO_10_1';
	'GOL_110_1';
	'GOL_110_2';
	'GOL_10_2';
	'GOL_110_WP';
	'GOL_10_1';
	'LET_10_1';
	'SBN_110_1';
	'OMA_110_1';
	'COR_110_1';
	'COR_110_2';
	'GWE_110_COR';
	'COR_10_2';
	'COR_10_1';
	'LET_110_WP';
	'TLK_110_1';
	'TLK_110_2';
	'TLK_10_2';
	'TLK_110_WP';
	'SOR_110_1';
	'SOR_110_2';
	'SOR_10_2';
	'SOR_110_WP';
	'SOR_10_1';
	'TLK_10_1';
	'LET_10_2';
	'CL_110_1';
	'CL_110_2';
	'CL_10_2';
	'CL_10_ER2';
	'CL_10_ER1';
	'CL_10_1';
	'CF_10_2';
	'CF_10_1';
	'SRA_10_1';
	'SRA_220_1';
	'SRA_220_2';
	'SRA_10_2';
	'CDY_10_2';
	'CDY_110_WP';
	'GAR_110_1';
	'GAR_110_2';
	'GAR_10_2';
	'GAR_110_WP';
	'GAR_10_1';
	'CDY_10_1';
	'COS_10_2';
	'COS_10_1';
	'ARV_10_1';
	'NAV_110_1';
	'NAV_110_2';
	'NAV_110_CAPA';
	'GOR_110_2';
	'GOR_110_1';
	'GOR_220_1';
	'GOR_220_CB';
	'MAY_220_1';
	'MAY_220_CB';
	'WOO_220_1';
	'CDU_220_1';
	'CDU_220_2';
	'FIN_220_2';
	'FIN_220_1';
	'LEILI_220_FI';
	'SHL_220_1';
	'LEILI_220_IS';
	'ISH_220_2';
	'ISH_220_1';
	'INC_220_1';
	'INC_220_2';
	'PB_220_1';
	'PB_110_1';
	'RE_110_2';
	'RE_110_1';
	'NQS_110_2';
	'NQS_110_1';
	'MCD_110_1';
	'MCD_110_2';
	'MCD_10_2';
	'MCD_10_CB';
	'FIN_110_1';
	'KLD_110_1';
	'KLD_110_2';
	'COL_110_1';
	'COL_110_2';
	'COL_10_2';
	'COL_10_CB';
	'COL_10_1';
	'KLD_10_2';
	'KLD_10_CB';
	'CLG_110_KLD';
	'KLD_10_1';
	'SVN_110_1';
	'SVN_110_2';
	'SVN_10_2';
	'GLA_110_1';
	'GLA_110_2';
	'GLA_10_2';
	'GLA_10_CB';
	'GLA_110_WP';
	'GLA_10_1';
	'SVN_10_1';
	'ART_110_1';
	'ART_110_2';
	'ART_10_2';
	'ART_10_CB';
	'ART_10_1';
	'PTN_110_1';
	'PTN_110_2';
	'PTN_10_2';
	'PTN_10_CB';
	'CAB_110_1';
	'CAB_110_2';
	'CAB_10_2';
	'CAB_10_CB';
	'WOL_110_1';
	'WOL_110_2';
	'WOL_10_2';
	'WOL_10_CB';
	'WOL_10_1';
	'CAB_10_1';
	'PTN_10_1';
	'FIN_35_1';
	'MCD_10_1';
	'NQS_10_1';
	'NQS_10_2';
	'NQS_10_CB';
	'PB_110_2';
	'PB_220_2';
	'NW_220_1';
	'NW_220_2';
	'NW_20_NW5';
	'MIL_110_2';
	'MIL_110_1';
	'TLY_110_MIL';
	'MIL_10_1';
	'INC_110_1';
	'HEU_110_1';
	'HEU_110_2';
	'HEU_10_2';
	'HEU_10_CB';
	'FRN_110_2';
	'FRN_110_1';
	'INC_110_2';
	'BKY_110_1';
	'BKY_110_2';
	'BKY_10_2';
	'BKY_10_CB';
	'CKG_110_2';
	'CKG_110_1';
	'KUD_110_1';
	'KUD_110_2';
	'GCA_110_2';
	'GCA_110_1';
	'NAN_110_1';
	'NAN_110_2';
	'NAN_10_2';
	'NAN_10_CB';
	'NAN_10_1';
	'GCA_10_1';
	'LEILI_110_GC';
	'GRI_110_2';
	'GRI_110_1';
	'MAY_110_2';
	'RYB_110_1';
	'RYB_110_2';
	'RYB_10_2';
	'RYB_10_CB';
	'RYB_10_1';
	'RNW_110_1';
	'RNW_110_2';
	'LEILI_110_DF';
	'DFR_110_1';
	'DFR_110_2';
	'DFR_10_2';
	'DFR_10_1';
	'KIN_110_1';
	'KIN_110_2';
	'KIN_10_2';
	'DER_110_1';
	'DER_110_2';
	'MAY_110_1';
	'KTL_110_1';
	'KTL_110_2';
	'KTL_10_2';
	'KTL_110_WP';
	'MON_110_1';
	'MON_110_2';
	'BDA_110_1';
	'BDA_110_2';
	'BDA_10_2';
	'NEW_110_1';
	'NEW_110_2';
	'LEILI_110_BL';
	'BLK_110_1';
	'BLK_110_2';
	'BLK_10_2';
	'BLK_10_1';
	'CUS_110_2';
	'CUS_110_1';
	'CUS_10_ED1';
	'MLC_110_1';
	'MLC_110_2';
	'MLC_110_WP';
	'TSB_110_1';
	'TSB_110_2';
	'TSB_10_2';
	'TSB_110_WP';
	'TSB_10_1';
	'MLC_10_2';
	'MLC_10_1';
	'PLS_110_2';
	'PLS_110_1';
	'PLS_110_WP';
	'LEILI_110_DA';
	'DAL_110_1';
	'DAL_110_2';
	'DAL_10_2';
	'DAL_110_WP';
	'DAL_10_1';
	'PLS_10_1';
	'ATY_110_2';
	'ATY_110_1';
	'CLW_110_1';
	'CLW_110_WP';
	'KLS_110_2';
	'KLS_110_1';
	'CLW_110_2';
	'LEILI_110_CL';
	'PA_110_1';
	'PA_10_LI4';
	'PA_10_LI1';
	'PA_110_2';
	'PA_10_LI2';
	'PA_10_2';
	'PA_10_1';
	'STR_110_1';
	'STR_110_2';
	'STR_10_2';
	'STR_10_1';
	'CLW_10_2';
	'KKY_110_1';
	'KKY_110_WP';
	'KKY_110_CAPA';
	'KKY_110_2';
	'KKY_110_CAPA';
	'GI_110_1';
	'WEX_110_1';
	'WEX_110_CAPA';
	'WEX_110_WP';
	'CRA_110_1';
	'CRA_110_WP';
	'BWR_110_1';
	'BWR_110_WP';
	'BWR_110_2';
	'BWR_10_2';
	'BWR_10_1';
	'LWD_110_2';
	'LWD_110_WP';
	'LWD_110_1';
	'CDK_110_1';
	'CDK_110_WP';
	'CDK_110_2';
	'CDK_10_2';
	'CDK_10_1';
	'CRY_110_1';
	'CRY_110_WP';
	'CRY_110_2';
	'CRY_10_2';
	'CRY_10_1';
	'LWD_10_1';
	'LWD_220_1';
	'ARK_220_2';
	'ARK_220_1';
	'CKM_220_1';
	'CKM_220_2';
	'LEILI_220_CK';
	'CKM_220_PST_';
	'CKM_110_2';
	'FAS_110_1';
	'FAS_110_2';
	'CKM_110_1';
	'POT_110_2';
	'POT_110_1';
	'BLA_110_1';
	'BLA_110_2';
	'BLA_10_2';
	'BLA_10_CB';
	'BLA_10_1';
	'POT_10_1';
	'POT_10_2';
	'POT_10_CB';
	'BCT_110_1';
	'BCT_110_2';
	'COO_110_2';
	'COO_110_1';
	'FTT_110_1';
	'FTT_110_2';
	'FTT_10_2';
	'FTT_10_CB';
	'CTY_110_2';
	'CTY_110_1';
	'CTY_10_1';
	'CTY_10_2';
	'CTY_10_CB';
	'FTT_10_1';
	'COO_10_1';
	'COO_10_2';
	'COO_10_CB';
	'BCT_10_2';
	'BCT_10_CB';
	'BCT_10_1';
	'CKM_35_1';
	'FAS_10_2';
	'FAS_10_1';
	'BEG_110_2';
	'BEG_110_1';
	'ARK_110_2';
	'ARK_110_WP';
	'SHE_110_1';
	'SHE_110_2';
	'SHE_10_2';
	'SHE_10_1';
	'BOG_110_1';
	'CRA_110_2';
	'CRA_10_2';
	'BOG_110_2';
	'BOG_10_2';
	'BOG_10_1';
	'ARK_110_1';
	'ARK_10_1';
	'ARK_10_2';
	'ARK_10_CB';
	'BEG_10_1';
	'BEG_10_2';
	'CPK_110_1';
	'CPK_110_2';
	'CPK_10_2';
	'CPK_10_CB';
	'TLY_110_1';
	'TLY_110_2';
	'TLY_10_2';
	'TLY_10_CB';
	'TLY_10_1';
	'CPK_10_1';
	'GI_220_2';
	'GI_110_2';
	'WAT_110_2';
	'CUL_110_2';
	'BDN_110_1';
	'DOO_110_1';
	'ANR_110_1';
	'ANR_110_2';
	'ANR_10_2';
	'ANR_10_1';
	'DOO_10_1';
	'CAH_110_2';
	'CAH_110_CAPA';
	'CAH_110_CAPA';
	'CAH_110_CAPA';
	'TIP_110_1';
	'TIP_110_WP';
	'TIP_110_2';
	'CTN_110_1';
	'CTN_110_WP';
	'KLN_110_2';
	'NEN_110_1';
	'NEN_110_WP';
	'NEN_110_2';
	'NEN_10_2';
	'NEN_10_1';
	'KLN_110_1';
	'AHA_110_1';
	'AHA_110_2';
	'AHA_10_2';
	'AHA_10_1';
	'SNG_110_2';
	'SNG_110_1';
	'SNG_10_1';
	'SNG_10_2';
	'LIM_110_2';
	'LIM_10_2';
	'KLN_10_1';
	'KLN_10_2';
	'CTN_110_2';
	'CTN_10_2';
	'CTN_10_1';
	'TIP_10_2';
	'TIP_10_1';
	'CAH_110_1';
	'CAH_110_CAPA';
	'KHL_110_1';
	'KHL_110_WP';
	'THU_110_2';
	'THU_110_1';
	'THU_110_CAPA';
	'THU_110_WP';
	'LEILI_110_IK';
	'IKE_110_1';
	'IKE_110_2';
	'IKE_10_2';
	'IKE_110_WP';
	'IKE_10_1';
	'LSN_110_1';
	'LSN_110_WP';
	'LSN_110_2';
	'LSN_10_2';
	'LSN_10_1';
	'THU_10_1';
	'THU_10_2';
	'KHL_110_2';
	'KHL_10_2';
	'KHL_10_1';
	'LEILI_110_BA';
	'BAR_110_1';
	'BAR_110_WP';
	'BAR_110_2';
	'BAR_10_2';
	'BAR_10_1';
	'CAH_10_1';
	'CAH_10_2';
	'DOO_10_2';
	'BDN_110_2';
	'BDN_10_2';
	'BDN_10_1';
	'CUL_110_1';
	'BUT_110_1';
	'BUT_110_WP';
	'KTN_110_1';
	'KTN_110_2';
	'WAT_110_1';
	'WAT_110_WP';
	'WAT_10_1';
	'KTN_10_2';
	'KTN_10_1';
	'BUT_110_2';
	'BUT_10_2';
	'BUT_10_1';
	'DGN_110_2';
	'DGN_110_1';
	'DGN_110_WP';
	'WH_110_1';
	'WH_110_2';
	'WH_10_2';
	'WH_10_1';
	'DGN_10_1';
	'DGN_10_2';
	'WAT_10_2';
	'LWD_220_2';
	'LWD_10_2';
	'CRA_10_1';
	'WEX_110_2';
	'WEX_110_CAPA';
	'WEX_10_2';
	'WEX_10_1';
	'KKY_10_2';
	'KKY_10_1';
	'KLS_10_1';
	'KLS_10_2';
	'CLW_10_1';
	'ATY_10_1';
	'ATY_10_2';
	'PLS_10_2';
	'CUS_10_1';
	'CUS_10_ED3';
	'CUS_10_2';
	'NEW_10_2';
	'NEW_10_1';
	'BDA_10_1';
	'MON_10_2';
	'MON_10_1';
	'KTL_10_1';
	'DER_10_RP1';
	'DER_10_2';
	'DER_10_RP2';
	'DER_10_1';
	'KIN_10_1';
	'RNW_10_2';
	'RNW_10_CB';
	'RNW_10_1';
	'GRI_10_1';
	'GRI_10_2';
	'GRI_10_CB';
	'GCA_10_2';
	'GCA_10_CB';
	'KUD_10_2';
	'KUD_10_CB';
	'KUD_10_1';
	'CKG_10_1';
	'CKG_10_2';
	'CKG_10_CB';
	'BKY_10_1';
	'HAR_110_1';
	'HAR_110_2';
	'HAR_10_2';
	'HAR_10_CB';
	'HAR_10_1';
	'MHL_110_1';
	'MHL_110_2';
	'MHL_10_2';
	'MHL_10_CB';
	'MHL_10_1';
	'FRN_10_1';
	'FRN_10_2';
	'FRN_10_CB';
	'HEU_10_1';
	'INC_35_1';
	'MIL_10_2';
	'MIL_10_CB';
	'RE_35_1';
	'RE_35_DW1';
	'RE_35_2';
	'SHL_20_PB14';
	'SHL_20_PB15';
	'ISH_10_DB1';
	'ISH_10_DB1';
	'ISH_10_DB1';
	'SHL_20_PB16';
	'HUN_220_1';
	'HUN_20_HN2';
	'FIN_110_2';
	'GRA_110_1';
	'GRA_110_2';
	'GRA_10_2';
	'GRA_10_CB';
	'NBY_110_1';
	'NBY_110_2';
	'NBY_10_2';
	'NBY_10_CB';
	'KLM_110_2';
	'KLM_110_1';
	'CRM_110_2';
	'CRM_110_1';
	'CRM_10_1';
	'CRM_10_2';
	'CRM_10_CB';
	'DTN_110_1';
	'DTN_110_2';
	'DTN_10_2';
	'DTN_10_CB';
	'DTN_10_1';
	'POP_110_2';
	'POP_110_1';
	'POP_10_1';
	'POP_10_2';
	'POP_10_CB';
	'KLM_10_1';
	'KLM_10_2';
	'KLM_10_CB';
	'NBY_10_1';
	'GRA_10_1';
	'FIN_110_CB';
	'WOO_400_2';
	'WOO_400_1';
	'WOO_320_HVDC';
	'OST_400_1';
	'MP_400_1';
	'MP_400_2';
	'MP_20_MP3';
	'MP_20_MP3';
	'MP_20_MP3';
	'DSN_400_1';
	'DSN_400_2';
	'MP_20_MP2';
	'MP_20_MP2';
	'MP_20_MP2';
	'MP_20_MP1';
	'MP_20_MP1';
	'MP_20_MP1';
	'OST_220_1';
	'OST_220_CB';
	'TYN_220_1';
	'TYN_220_2';
	'TYN_20_TDT';
	'HUN_220_2';
	'HUN_220_CB';
	'HUN_20_HNC';
	'WOO_220_CB';
	'TH_220_2';
	'TH_220_1';
	'TH_20_TH2';
	'TH_20_TH1';
	'TH_20_TH4';
	'TH_20_TH3';
	'GOR_110_WP';
	'MTH_110_1';
	'MTH_110_2';
	'MTH_10_2';
	'MTH_110_WP';
	'MTH_10_1';
	'KUR_110_1';
	'KUR_110_2';
	'KUR_10_2';
	'KUR_10_1';
	'NAV_10_2';
	'NAV_10_1';
	'GWE_110_1';
	'GWE_110_2';
	'GWE_10_2';
	'GWE_110_CAPA';
	'GWE_110_WP';
	'GWE_10_1';
	'ARV_10_2';
	'SKL_10_2';
	'SKL_110_CAPA';
	'SKL_10_1';
	'RRU_10_2';
	'RRU_110_WP';
	'RRU_10_1';
	'MLN_110_1';
	'MLN_110_2';
	'DDK_110_1';
	'DDK_110_2';
	'DDK_10_2';
	'DDK_110_WP';
	'DDK_10_1';
	'MLN_10_2';
	'MLN_10_1';
	'LOU_110_CAPA';
	'DRY_10_2';
	'DRY_10_DRY';
	'BAL_110_1';
	'BAL_110_2';
	'BAL_10_2';
	'BAL_10_CB';
	'BAL_10_1';
	'DRY_10_1';
	'PLA_10_2';
	'PLA_10_1';
	'MUL_20_2';
	'MUL_110_CAPA';
	'MUL_20_1';
	'RIC_110_2';
	'RIC_110_1';
	'RIC_10_1';
	'RIC_10_2';
	'CLN_110_1';
	'CLN_110_2';
	'CLN_10_2';
	'CLN_110_WP';
	'CLN_10_1';
	'LA_10_2';
	'LA_10_LR4';
	'ATH_110_2';
	'ATH_110_1';
	'ATH_110_WP';
	'ATH_10_1';
	'ATH_110_CAPA';
	'ATH_10_2';
	'LA_10_1';
	'SLB_20_2';
	'SLB_20_1';
	'GIL_110_1';
	'GIL_110_2';
	'GIL_20_2';
	'GIL_20_1';
	'TON_110_1';
	'TON_110_2';
	'TON_10_2';
	'TON_110_WP';
	'TON_10_1';
	'SLI_10_1';
	'SLI_10_SLI';
	'SLI_10_2';
	'CUN_10_1';
	'GLR_10_1';
	'GLR_110_WP';
	'GLR_10_2';
	'MOY_10_1';
	'BK_10_1';
	'CBR_10_1';
	'CBR_110_SVC';
	'CBR_10_2';
	'DLT_10_1';
	'DLT_110_CAPA';
	'DLT_10_2';
	'SOM_110_1';
	'SOM_110_2';
	'SOM_10_2';
	'SOM_110_WP';
	'SOM_10_1';
	'SH_10_2';
	'SH_10_1';
	'DYN_110_1';
	'DYN_110_2';
	'DYN_20_2';
	'DYN_110_WP';
	'DYN_20_1';
	'AGL_10_1';
	'AGL_10_2';
	'BOL_110_1';
	'BOL_110_2';
	'LEILI_110_BO';
	'MP_110_1';
	'MP_110_2';
	'MP_110_WP';
	'TBK_110_1';
	'TBK_110_2';
	'TBK_10_2';
	'TBK_110_WP';
	'TBK_10_1';
	'BOL_10_2';
	'BOL_110_WP';
	'BOL_10_1';
	'ENN_10_1';
	'AA_110_2';
	'AA_10_AA4';
	'AA_10_AA3';
	'AA_10_2';
	'SLC_110_1';
	'SLC_110_2';
	'SLC_20_2';
	'SLC_110_WP';
	'SLC_20_1';
	'ENN_10_2';
	'DRU_10_2';
	'DRU_10_1';
	'AA_10_1';
	'MTN_110_2';
	'MUN_110_2';
	'MUN_110_1';
	'MTN_110_1';
	'AUG_110_1';
	'AUG_10_SK3';
	'CFM_110_2';
	'CFM_110_1';
	'AUG_110_2';
	'AUG_110_WP';
	'AUG_10_SK4';
	'SK_110_2';
	'SK_110_1';
	'SK_10_1';
	'SK_10_2';
	'AUG_10_2';
	'CFM_10_1';
	'CFM_10_2';
	'AUG_10_1';
	'MTN_10_1';
	'MUN_10_1';
	'MUN_10_2';
	'MTN_10_2';
	'LIM_10_1';
	'RAT_10_1';
	'RAT_10_2';
	'KNR_110_2';
	'ATE_110_1';
	'ATE_110_WP';
	'DRO_110_1';
	'DRO_110_WP';
	'DRO_110_CAPA';
	'DRO_110_2';
	'DRO_10_2';
	'DRO_10_1';
	'ATE_110_2';
	'ATE_10_2';
	'ATE_10_CB';
	'ATE_10_1';
	'TRI_110_2';
	'CLH_110_1';
	'CLH_110_2';
	'CLH_10_2';
	'CLH_10_1';
	'TRI_110_1';
	'TRI_110_WP';
	'CBL_110_1';
	'CBL_110_WP';
	'CBL_110_2';
	'CBL_10_2';
	'CBL_10_1';
	'KNR_110_1';
	'KNR_10_1';
	'KNR_220_1';
	'TRI_10_1';
	'TRI_10_2';
	'KNR_10_2';
	'TB_110_1';
	'TB_10_TB1';
	'TB_110_2';
	'TB_10_TB2';
	'TB_10_2';
	'TB_220_2';
	'TB_220_1';
	'TB_10_TB4';
	'TB_10_TB3';
	'TB_10_1';
	'KPG_10_1';
	'TRL_10_1';
	'TRL_10_2';
	'KPG_10_2';
	'GLE_10_2';
	'GLE_10_1';
	'CHA_10_1';
	'CHA_10_2';
	'MAL_110_2';
	'MAL_10_2';
	'MAL_10_1';
	'MR_110_1';
	'MR_10_MRT';
	'LIB_110_2';
	'LIB_110_1';
	'LIB_10_1';
	'LIB_10_2';
	'TBG_110_1';
	'RAF_110_2';
	'RSY_110_1';
	'RSY_110_2';
	'RSY_10_2';
	'RSY_10_1';
	'BRY_110_2';
	'BRY_110_1';
	'BRY_10_1';
	'BRY_10_2';
	'RAF_10_2';
	'TBG_10_1';
	'MR_10_1';
	'KBY_10_1';
	'CVW_110_2';
	'CVW_110_1';
	'COW_110_2';
	'OLD_110_1';
	'OLD_110_2';
	'OLD_10_2';
	'OLD_10_1';
	'COW_10_2';
	'CVW_10_1';
	'CVW_10_2';
	'KRA_10_1';
	'MID_10_2';
	'MID_10_1';
	'WHI_110_2';
	'AD_110_1';
	'AD_110_2';
	'AD_220_1';
	'AD_20_AD1';
	'LPT_220_1';
	'LPT_10_AD2';
	'LPT_220_CB';
	'WHI_10_2';
	'WHI_10_1';
	'COW_10_1';
	'RAF_10_1';
	'TBG_10_2';
	'MR_10_2';
	'KBY_10_2';
	'KRA_10_2';
	'RAF_220_CB';
	'CUL_220_CB';
	'SH_10_WOP';
	'PRO_220_2';
};
